 16
   -748.44376600
 C   0.00000001   1.16722115   1.01274332
 C   0.00000001   1.19183790   2.40443929
 C  -0.00000002  -0.01199386   3.10178579
 C  -0.00000001  -1.20431828   2.38223954
 C   0.00000001  -1.15446688   0.99298055
 N   0.00000001   0.01311553   0.32306509
 C  -0.00000000   0.00584399  -1.35465255
 H   0.00000002   2.07538705   0.42557319
 H  -0.00000001   2.14144981   2.92552331
 H  -0.00000001  -0.02207777   4.18668135
 H  -0.00000002  -2.16310626   2.88601425
 H  -0.00000000  -2.05001443   0.38640073
 H  -0.00000002   1.05212533  -1.63796029
 H  -0.90881295  -0.51785993  -1.63062103
 H   0.90881296  -0.51785988  -1.63062104
Cl  -0.00000001   0.00297913  -3.99984601
