 16
-748.45218000
 C   0.00000000   1.16609820   1.02735527
 C   0.00000000   1.19463345   2.41576043
 C   0.00000002  -0.01216395   3.10950894
 C   0.00000000  -1.20692975   2.39320256
 C  -0.00000001  -1.15260981   1.00670506
 N   0.00000000   0.01343844   0.35166734
 C   0.00000002   0.00478704  -1.49777354
 H   0.00000003   2.07233576   0.43226465
 H  -0.00000001   2.14427841   2.93512825
 H  -0.00000002  -0.02219521   4.19285321
 H  -0.00000003  -2.16583503   2.89525250
 H   0.00000001  -2.04649113   0.39267801
 H  -0.00000005   1.07039985  -1.64592048
 H  -0.92469844  -0.52733347  -1.63699768
 H   0.92469848  -0.52733347  -1.63699769
Cl  -0.00000001   0.00318325  -3.96094132
 16
-748.45200000
 C   0.00000001   1.16765410   0.98839883
 C   0.00000000   1.19312500   2.37408813
 C  -0.00000001  -0.01168577   3.07341419
 C  -0.00000001  -1.20709460   2.35177847
 C  -0.00000000  -1.15639315   0.96998966
 N  -0.00000001   0.01154938   0.31937803
 C   0.00000009   0.00598748  -1.18448992
 H   0.00000001   2.08171961   0.39011447
 H   0.00000000   2.14735739   2.88890253
 H  -0.00000001  -0.02132493   4.15017947
 H  -0.00000001  -2.16958051   2.85174522
 H  -0.00000000  -2.06047297   0.35195924
 H  -0.00000003   1.03379246  -1.54924279
 H  -0.88498040  -0.50032070  -1.55724260
 H   0.88498035  -0.50032062  -1.55724258
Cl  -0.00000001  -0.00572956  -4.08798483
 16
-748.45187600
 C   0.00000001   1.19667508   1.00061809
 C   0.00000000   1.19402470   2.37101788
 C  -0.00000001  -0.01208060   3.06920104
 C  -0.00000001  -1.20724142   2.35000166
 C  -0.00000000  -1.18840792   0.98151562
 N   0.00000002   0.01204417   0.29530433
 C  -0.00000015   0.01700088  -1.19311635
 H   0.00000002   2.07189665   0.39929606
 H   0.00000000   2.14399943   2.88988944
 H  -0.00000001  -0.02141250   4.16008157
 H  -0.00000001  -2.16571015   2.85212314
 H  -0.00000000  -2.04868032   0.36227615
 H  -0.00000002   1.02455562  -1.55524597
 H  -0.88574729  -0.50221352  -1.56422121
 H   0.88574745  -0.50221354  -1.56422126
Cl  -0.00000001  -0.00397395  -4.08077469
 16
-748.45132000
 C   0.00000001   1.16895936   0.98808704
 C   0.00000000   1.19189633   2.38183446
 C  -0.00000001  -0.01173161   3.07764229
 C  -0.00000001  -1.20517721   2.36018821
 C  -0.00000000  -1.15778198   0.96925115
 N  -0.00000000   0.01275509   0.31441115
 C   0.00000006   0.00635195  -1.18921013
 H   0.00000002   2.08478026   0.40149364
 H   0.00000000   2.13936927   2.89449224
 H  -0.00000001  -0.02146342   4.16011666
 H  -0.00000002  -2.16127390   2.85658653
 H  -0.00000000  -2.06175992   0.36358027
 H  -0.00000003   1.02330364  -1.57575396
 H  -0.87897953  -0.49924805  -1.57947855
 H   0.87897951  -0.49924799  -1.57947854
Cl  -0.00000001  -0.00146923  -4.07001693
 16
-748.45096100
 C   0.00000001   1.19054889   1.01004377
 C  -0.00000000   1.18919974   2.36833149
 C  -0.00000000  -0.01152412   3.08373130
 C  -0.00000001  -1.20229728   2.34592071
 C  -0.00000000  -1.17908631   0.99202812
 N   0.00000002   0.01186241   0.29516148
 C  -0.00000009   0.01382557  -1.19731668
 H   0.00000002   2.07832027   0.40797928
 H   0.00000000   2.13813855   2.89898657
 H  -0.00000001  -0.02161327   4.16814309
 H  -0.00000002  -2.16002407   2.86080989
 H  -0.00000000  -2.05488024   0.36990127
 H  -0.00000002   1.02135127  -1.58796910
 H  -0.88353930  -0.50264368  -1.59104026
 H   0.88353941  -0.50264368  -1.59104030
Cl  -0.00000001  -0.00027142  -4.05992513
 16
-748.44900700
 C   0.00000001   1.16662182   0.99219176
 C   0.00000000   1.18987394   2.39342779
 C  -0.00000001  -0.01201936   3.08909648
 C  -0.00000001  -1.20245857   2.37195792
 C   0.00000000  -1.15533469   0.97290585
 N   0.00000000   0.01345549   0.30459824
 C   0.00000004   0.00627281  -1.23049341
 H   0.00000002   2.08143285   0.41564837
 H  -0.00000000   2.13746242   2.91009211
 H  -0.00000001  -0.02181366   4.17693724
 H  -0.00000002  -2.15924088   2.87127201
 H  -0.00000000  -2.05682321   0.37727203
 H  -0.00000003   1.02516410  -1.61278211
 H  -0.88382173  -0.50294676  -1.60992795
 H   0.88382173  -0.50294670  -1.60992795
Cl  -0.00000001   0.00156299  -4.03852287
 16
-748.44615900
 C   0.00000001   1.17182404   1.01024173
 C  -0.00000000   1.19012331   2.39308192
 C  -0.00000000  -0.01172450   3.09906582
 C  -0.00000001  -1.20294679   2.37061281
 C  -0.00000000  -1.15902288   0.99122180
 N   0.00000001   0.01264771   0.30558368
 C  -0.00000001   0.00779478  -1.28557677
 H   0.00000002   2.07695902   0.42130384
 H  -0.00000000   2.13992177   2.91927705
 H  -0.00000001  -0.02196738   4.18232384
 H  -0.00000002  -2.16165989   2.88011819
 H   0.00000000  -2.05220350   0.38230335
 H  -0.00000002   1.04227623  -1.62959282
 H  -0.90094438  -0.51314759  -1.62405725
 H   0.90094442  -0.51314755  -1.62405726
Cl  -0.00000001   0.00253582  -4.01810442
 16
-748.44376600
 C   0.00000001   1.16722115   1.01274332
 C   0.00000001   1.19183790   2.40443929
 C  -0.00000002  -0.01199386   3.10178579
 C  -0.00000001  -1.20431828   2.38223954
 C   0.00000001  -1.15446688   0.99298055
 N   0.00000001   0.01311553   0.32306509
 C  -0.00000000   0.00584399  -1.35465255
 H   0.00000002   2.07538705   0.42557319
 H  -0.00000001   2.14144981   2.92552331
 H  -0.00000001  -0.02207777   4.18668135
 H  -0.00000002  -2.16310626   2.88601425
 H  -0.00000000  -2.05001443   0.38640073
 H  -0.00000002   1.05212533  -1.63796029
 H  -0.90881295  -0.51785993  -1.63062103
 H   0.90881296  -0.51785988  -1.63062104
Cl  -0.00000001   0.00297913  -3.99984601
 16
-748.44284200
 C   0.00000000   1.16695386   1.02090575
 C  -0.00000000   1.19330237   2.41010927
 C   0.00000002  -0.01207233   3.10595877
 C  -0.00000000  -1.20567728   2.38767463
 C  -0.00000001  -1.15370341   1.00065274
 N   0.00000000   0.01327875   0.33843849
 C   0.00000002   0.00530298  -1.42452605
 H   0.00000003   2.07363553   0.42903455
 H  -0.00000001   2.14297847   2.93064312
 H  -0.00000002  -0.02212226   4.18986128
 H  -0.00000003  -2.16455316   2.89096078
 H   0.00000001  -2.04802647   0.38964059
 H  -0.00000005   1.06410738  -1.64376259
 H  -0.91931988  -0.52412561  -1.63545750
 H   0.91931992  -0.52412560  -1.63545751
Cl  -0.00000001   0.00310937  -3.98093082
 16
-748.44387700
 C   0.00000001   1.16370160   1.03876648
 C   0.00000001   1.19714240   2.42708530
 C  -0.00000002  -0.01236422   3.11632445
 C  -0.00000001  -1.20930252   2.40437520
 C   0.00000001  -1.14994307   1.01742535
 N   0.00000000   0.01373620   0.37565358
 C   0.00000000   0.00378409  -1.64542207
 H   0.00000002   2.07005671   0.43866796
 H  -0.00000001   2.14675317   2.94380353
 H  -0.00000001  -0.02237097   4.19879409
 H  -0.00000002  -2.16832481   2.90351190
 H  -0.00000000  -2.04373017   0.39870421
 H  -0.00000002   1.07767523  -1.64806934
 H  -0.93074412  -0.53093500  -1.63812829
 H   0.93074414  -0.53093495  -1.63812829
Cl  -0.00000001   0.00331891  -3.91961856
 16
-748.44701300
 C   0.00000001   1.16491082   1.04718780
 C   0.00000000   1.19804307   2.43019615
 C  -0.00000001  -0.01234893   3.12020441
 C  -0.00000001  -1.21027790   2.40713715
 C  -0.00000000  -1.15072084   1.02565767
 N   0.00000001   0.01368591   0.38278853
 C  -0.00000001   0.00371063  -1.71945583
 H   0.00000002   2.06876043   0.44168356
 H  -0.00000000   2.14792872   2.94777373
 H  -0.00000001  -0.02243782   4.20158580
 H  -0.00000002  -2.16952657   2.90735834
 H  -0.00000000  -2.04237562   0.40148802
 H  -0.00000003   1.07831862  -1.64795765
 H  -0.93146986  -0.53133845  -1.63767093
 H   0.93146990  -0.53133841  -1.63767093
Cl  -0.00000001   0.00326895  -3.89656031
 16
-748.45198100
 C   0.00000001   1.16125449   1.04907633
 C   0.00000000   1.19925065   2.43766884
 C  -0.00000001  -0.01254284   3.12297042
 C  -0.00000001  -1.21136042   2.41478160
 C  -0.00000000  -1.14730521   1.02715785
 N   0.00000001   0.01401167   0.39343336
 C   0.00000002   0.00287663  -1.79245772
 H   0.00000002   2.06817279   0.44504515
 H  -0.00000000   2.14890605   2.95175414
 H  -0.00000001  -0.02250736   4.20453331
 H  -0.00000002  -2.17049225   2.91114498
 H  -0.00000000  -2.04146843   0.40477001
 H  -0.00000003   1.07434502  -1.64830720
 H  -0.92763173  -0.52901439  -1.63777914
 H   0.92763174  -0.52901433  -1.63777915
Cl  -0.00000001   0.00315053  -3.87226730
 16
-748.45816000
 C   0.00000001   1.16321711   1.05818604
 C   0.00000000   1.19978743   2.44051544
 C  -0.00000001  -0.01251126   3.12766650
 C  -0.00000001  -1.21196668   2.41723457
 C  -0.00000000  -1.14880014   1.03621453
 N   0.00000001   0.01384383   0.39703196
 C  -0.00000001   0.00300907  -1.86465770
 H   0.00000002   2.06673368   0.44878722
 H  -0.00000000   2.15031869   2.95638161
 H  -0.00000001  -0.02258936   4.20820370
 H  -0.00000002  -2.17193769   2.91562461
 H  -0.00000000  -2.03996445   0.40823132
 H  -0.00000003   1.06709435  -1.65005061
 H  -0.92163532  -0.52543419  -1.63923123
 H   0.92163536  -0.52543415  -1.63923123
Cl  -0.00000001   0.00289635  -3.84716123
 16
-748.46451600
 C   0.00000001   1.16015469   1.06211930
 C   0.00000000   1.20080831   2.44856104
 C  -0.00000001  -0.01264465   3.13254493
 C  -0.00000001  -1.21295968   2.42536057
 C  -0.00000000  -1.14586086   1.03983121
 N   0.00000001   0.01407062   0.40516809
 C   0.00000001   0.00231183  -1.93472740
 H   0.00000002   2.06590537   0.45374146
 H  -0.00000000   2.15140397   2.96187056
 H  -0.00000001  -0.02269325   4.21283874
 H  -0.00000002  -2.17302396   2.92088283
 H  -0.00000000  -2.03883376   0.41302361
 H  -0.00000003   1.05568495  -1.65498177
 H  -0.91145592  -0.51927977  -1.64402841
 H   0.91145593  -0.51927972  -1.64402842
Cl  -0.00000001   0.00249848  -3.82443084
 16
-748.46966900
 C   0.00000001   1.15939656   1.07040966
 C   0.00000000   1.20163212   2.45880532
 C  -0.00000001  -0.01279688   3.14036709
 C  -0.00000001  -1.21375485   2.43546795
 C  -0.00000000  -1.14508265   1.04793412
 N   0.00000001   0.01426663   0.41120986
 C   0.00000000   0.00221730  -1.99915719
 H   0.00000002   2.06422794   0.46213486
 H  -0.00000000   2.15247586   2.97033871
 H  -0.00000001  -0.02286969   4.22153086
 H  -0.00000002  -2.17415943   2.92904844
 H  -0.00000000  -2.03686015   0.42110288
 H  -0.00000003   1.03882960  -1.66733800
 H  -0.89700663  -0.51046979  -1.65616405
 H   0.89700665  -0.51046975  -1.65616406
Cl  -0.00000001   0.00167978  -3.81578095
 16
-748.47264000
 C   0.00000001   1.15763728   1.07848448
 C   0.00000000   1.20168717   2.47658973
 C  -0.00000001  -0.01327092   3.15138664
 C  -0.00000001  -1.21342017   2.45328307
 C   0.00000000  -1.14380604   1.05581872
 N   0.00000001   0.01494249   0.41954628
 C  -0.00000000   0.00225064  -2.03105798
 H   0.00000002   2.06259725   0.47656537
 H  -0.00000000   2.15222138   2.98308599
 H  -0.00000001  -0.02316048   4.23714971
 H  -0.00000002  -2.17414485   2.94138788
 H  -0.00000000  -2.03475963   0.43518943
 H  -0.00000003   1.02727694  -1.69163775
 H  -0.88714891  -0.50398233  -1.68015197
 H   0.88714894  -0.50398229  -1.68015197
Cl  -0.00000001   0.00017617  -3.85174213
 16
-748.47467300
 C   0.00000001   1.16181411   1.10808287
 C   0.00000000   1.19704726   2.46704575
 C  -0.00000001  -0.01235122   3.17680860
 C  -0.00000001  -1.21009244   2.44236722
 C   0.00000000  -1.14514293   1.08542730
 N   0.00000001   0.01308113   0.41803837
 C  -0.00000000   0.00239302  -2.05927925
 H   0.00000002   2.06463767   0.48729263
 H  -0.00000000   2.15454072   2.99712545
 H  -0.00000001  -0.02341598   4.24617893
 H  -0.00000002  -2.17650775   2.95503599
 H  -0.00000000  -2.03714699   0.44509405
 H  -0.00000003   1.03645028  -1.71371690
 H  -0.89497560  -0.50792759  -1.70168281
 H   0.89497563  -0.50792755  -1.70168282
Cl  -0.00000001  -0.00118914  -3.87838989
 16
-748.47537500
 C   0.00000001   1.15481787   1.09001307
 C   0.00000000   1.20118814   2.49601687
 C  -0.00000001  -0.01350506   3.16767602
 C  -0.00000001  -1.21304120   2.47272660
 C   0.00000000  -1.14112798   1.06698521
 N   0.00000001   0.01548375   0.43024222
 C  -0.00000000   0.00254376  -2.06379423
 H   0.00000002   2.06357744   0.49603434
 H  -0.00000000   2.14929809   2.99890644
 H  -0.00000001  -0.02353744   4.25645878
 H  -0.00000002  -2.17141636   2.95664666
 H  -0.00000000  -2.03530924   0.45428917
 H  -0.00000003   1.03074845  -1.72764164
 H  -0.88990744  -0.50481197  -1.71542144
 H   0.88990747  -0.50481192  -1.71542145
Cl  -0.00000001  -0.00183375  -3.88997112
 16
-748.47696400
 C   0.00000001   1.16289046   1.12463783
 C   0.00000000   1.19357335   2.47829606
 C  -0.00000001  -0.01297335   3.19272042
 C  -0.00000001  -1.20581877   2.45307821
 C   0.00000000  -1.14623276   1.10220139
 N   0.00000001   0.01347180   0.42466247
 C  -0.00000000   0.00269433  -2.09214186
 H   0.00000002   2.06538157   0.50524198
 H  -0.00000000   2.15423835   3.01285485
 H  -0.00000001  -0.02370241   4.26300498
 H  -0.00000002  -2.17678622   2.97040492
 H  -0.00000000  -2.03770137   0.46258985
 H  -0.00000003   1.03463696  -1.74761683
 H  -0.89287258  -0.50619957  -1.73488681
 H   0.89287261  -0.50619952  -1.73488682
Cl  -0.00000001  -0.00301026  -3.90641514
 16
-748.47735800
 C   0.00000001   1.15415306   1.10591050
 C   0.00000000   1.19989000   2.50652949
 C  -0.00000001  -0.01325803   3.18536191
 C  -0.00000001  -1.21244282   2.48284914
 C   0.00000000  -1.13952048   1.08255057
 N   0.00000001   0.01514264   0.43759010
 C  -0.00000000   0.00287207  -2.09773258
 H   0.00000002   2.06507211   0.51276664
 H  -0.00000000   2.14815886   3.01354411
 H  -0.00000001  -0.02385091   4.27107091
 H  -0.00000002  -2.17036651   2.97073136
 H  -0.00000000  -2.03668691   0.47059063
 H  -0.00000003   1.03224851  -1.75870694
 H  -0.89070470  -0.50478270  -1.74575000
 H   0.89070472  -0.50478266  -1.74575001
Cl  -0.00000001  -0.00358362  -3.91781032
 16
-748.47885400
 C   0.00000001   1.16393080   1.13843961
 C   0.00000000   1.19005217   2.49248541
 C  -0.00000001  -0.01339006   3.20665978
 C  -0.00000001  -1.20187715   2.46685478
 C   0.00000000  -1.14702673   1.11609073
 N   0.00000001   0.01369112   0.43244927
 C  -0.00000000   0.00306541  -2.11803195
 H   0.00000002   2.06611831   0.52293850
 H  -0.00000000   2.15378230   3.02789960
 H  -0.00000001  -0.02399144   4.27955726
 H  -0.00000002  -2.17680936   2.98503520
 H   0.00000000  -2.03833492   0.47984858
 H  -0.00000003   1.03277167  -1.78105510
 H  -0.89070305  -0.50444315  -1.76749440
 H   0.89070307  -0.50444311  -1.76749441
Cl  -0.00000001  -0.00483326  -3.94043736
 16
-748.47914100
 C   0.00000001   1.15276811   1.11973660
 C   0.00000000   1.19935787   2.51958738
 C  -0.00000001  -0.01329552   3.20164655
 C  -0.00000001  -1.21220159   2.49572267
 C   0.00000000  -1.13784906   1.09609444
 N   0.00000001   0.01525239   0.44645322
 C  -0.00000000   0.00322521  -2.12806319
 H   0.00000002   2.06658614   0.52965498
 H  -0.00000000   2.14669914   3.02792863
 H  -0.00000002  -0.02414982   4.28622562
 H  -0.00000002  -2.16909358   2.98458131
 H   0.00000000  -2.03799683   0.48714587
 H  -0.00000003   1.03313773  -1.79049001
 H  -0.89093454  -0.50440664  -1.77662676
 H   0.89093456  -0.50440660  -1.77662677
Cl  -0.00000001  -0.00536435  -3.94922503
 16
-748.48044600
 C   0.00000001   1.16566262   1.15099990
 C   0.00000000   1.18612736   2.50741441
 C  -0.00000001  -0.01383118   3.21849630
 C  -0.00000001  -1.19752165   2.48132376
 C   0.00000000  -1.14851166   1.12879519
 N   0.00000001   0.01385883   0.44128366
 C  -0.00000000   0.00338966  -2.15045427
 H   0.00000002   2.06625426   0.54022239
 H  -0.00000000   2.15347762   3.04237844
 H  -0.00000002  -0.02425857   4.29611704
 H  -0.00000002  -2.17698862   2.99913884
 H   0.00000000  -2.03839847   0.49673245
 H  -0.00000003   1.03353311  -1.81292048
 H  -0.89077495  -0.50396672  -1.79832671
 H   0.89077498  -0.50396668  -1.79832671
Cl  -0.00000001  -0.00659730  -3.96912870
 16
-748.48066500
 C   0.00000001   1.15108855   1.13348748
 C   0.00000000   1.19928114   2.53247667
 C  -0.00000001  -0.01334632   3.21778940
 C  -0.00000001  -1.21243622   2.50847317
 C   0.00000000  -1.13598392   1.10955243
 N   0.00000001   0.01537928   0.45589973
 C  -0.00000000   0.00357387  -2.15901746
 H   0.00000002   2.06796903   0.54589508
 H  -0.00000000   2.14525926   3.04195222
 H  -0.00000002  -0.02442883   4.30072071
 H  -0.00000002  -2.16782409   2.99809065
 H   0.00000000  -2.03918074   0.50309080
 H  -0.00000003   1.03363220  -1.82208751
 H  -0.89078933  -0.50380225  -1.80714601
 H   0.89078935  -0.50380221  -1.80714601
Cl  -0.00000001  -0.00711616  -3.97828584
