 16
   -745.84568933
 C   0.00000046   1.16265846   0.99359568
 C   0.00000065   1.18572516   2.36987400
 C   0.00000001  -0.01611052   3.05331329
 C  -0.00000057  -1.20510583   2.33984164
 C  -0.00000064  -1.14874326   0.96884129
 N  -0.00000019   0.01654066   0.32383065
 C   0.00000001   0.01038237  -1.20793008
 H   0.00000078   2.05824443   0.40425386
 H   0.00000135   2.12696921   2.88357991
 H  -0.00000005  -0.02922154   4.12765122
 H  -0.00000106  -2.15775197   2.83210987
 H  -0.00000103  -2.02725074   0.35270636
 H  -0.00000352   1.02837575  -1.54542352
 H  -0.88681803  -0.49702478  -1.53952101
 H   0.88682160  -0.49701872  -1.53952082
Cl   0.00000018  -0.00240609  -4.04345685
