 16
   -745.87844077
 C  -0.00000002   1.17115917   1.22070997
 C   0.00000010   1.18228782   2.60440333
 C   0.00000005  -0.03101395   3.26803232
 C  -0.00000006  -1.19521600   2.52173672
 C  -0.00000007  -1.08766786   1.14212959
 N  -0.00000011   0.06551843   0.49820152
 C   0.00000002  -0.01058709  -2.24971572
 H  -0.00000015   2.09824998   0.67297011
 H   0.00000023   2.11387522   3.13899761
 H   0.00000003  -0.06839843   4.34282863
 H  -0.00000017  -2.16176051   2.99016553
 H  -0.00000007  -1.97472440   0.53123776
 H  -0.00000026   1.03504713  -2.00727672
 H  -0.89076429  -0.49954971  -1.90597323
 H   0.89076459  -0.49954924  -1.90597323
Cl   0.00000010  -0.12940795  -4.08872871
