 16
   -745.83502265
 C   0.00000051   1.15366735   1.08841350
 C   0.00000055   1.18272379   2.47020234
 C   0.00000012  -0.02176606   3.14981757
 C  -0.00000059  -1.19927867   2.42340093
 C  -0.00000057  -1.11583500   1.04449628
 N   0.00000003   0.03251565   0.38924963
 C   0.00000002   0.00536097  -1.77024882
 H   0.00000088   2.07073689   0.52459136
 H   0.00000072   2.12148562   2.99104219
 H   0.00000032  -0.04279917   4.22470610
 H  -0.00000117  -2.15766990   2.90716243
 H  -0.00000107  -2.00919257   0.44330013
 H  -0.00000339   1.06883029  -1.72225215
 H  -0.92158299  -0.52034010  -1.68693173
 H   0.92158637  -0.52033423  -1.68693168
Cl   0.00000020  -0.03984225  -4.01627257
