 16
   -745.86554166
 C   0.00000010   1.17014786   1.14442753
 C   0.00000023   1.18311310   2.52780884
 C   0.00000007  -0.02937792   3.19285525
 C  -0.00000021  -1.19476656   2.44824781
 C  -0.00000021  -1.08892225   1.06899665
 N  -0.00000004   0.06354249   0.42280493
 C   0.00000005  -0.01140808  -2.03061342
 H   0.00000013   2.09755552   0.59654557
 H   0.00000049   2.11541191   3.06096793
 H   0.00000009  -0.06530735   4.26762083
 H  -0.00000048  -2.16070909   2.91768196
 H  -0.00000045  -1.97728544   0.45937595
 H  -0.00000133   1.03851619  -1.82931513
 H  -0.90135914  -0.51371865  -1.75246573
 H   0.90136048  -0.51371643  -1.75246573
Cl   0.00000014  -0.10481270  -3.96872773
