 16
   -745.83869332
 C   0.00000053   1.16067298   0.99593982
 C   0.00000060   1.18588360   2.37308880
 C  -0.00000002  -0.01639538   3.05639407
 C  -0.00000049  -1.20494667   2.34313000
 C  -0.00000053  -1.14608036   0.97050821
 N  -0.00000013   0.01657724   0.32732849
 C   0.00000000   0.00983608  -1.29008892
 H   0.00000084   2.05775114   0.40782439
 H   0.00000118   2.12679536   2.88772365
 H  -0.00000016  -0.02954391   4.13081848
 H  -0.00000101  -2.15752694   2.83584887
 H  -0.00000092  -2.02626620   0.35597027
 H  -0.00000333   1.04126273  -1.57241883
 H  -0.89754301  -0.50416776  -1.56520600
 H   0.89754633  -0.50416207  -1.56520583
Cl   0.00000007  -0.00142723  -3.91790998
