 16
   -745.82652837
 C   0.00000020   1.15432005   1.03420545
 C   0.00000053   1.18492836   2.41343024
 C   0.00000023  -0.01745975   3.09729764
 C  -0.00000054  -1.20332835   2.38205848
 C  -0.00000087  -1.13674613   1.00586864
 N  -0.00000056   0.01806156   0.35833055
 C  -0.00000001   0.00927709  -1.49785645
 H   0.00000048   2.05885872   0.45426893
 H   0.00000116   2.12568915   2.92931442
 H   0.00000066  -0.03138954   4.17194366
 H  -0.00000079  -2.15689819   2.87386304
 H  -0.00000139  -2.02429828   0.39935976
 H  -0.00000327   1.06572076  -1.63756991
 H  -0.91767422  -0.51681437  -1.62612249
 H   0.91767754  -0.51680873  -1.62612181
Cl   0.00000080  -0.00484974  -3.95852464
