 16
   -745.88332378
 C   0.00000004   1.15161849   1.36869696
 C   0.00000002   1.18286217   2.75237148
 C  -0.00000002  -0.02053569   3.43369571
 C  -0.00000002  -1.19548069   2.70439271
 C   0.00000008  -1.10847800   1.32307802
 N   0.00000009   0.03540981   0.66357819
 C   0.00000000  -0.00213401  -2.63580878
 H   0.00000007   2.06950044   0.80619113
 H   0.00000009   2.12218340   3.27338952
 H  -0.00000013  -0.04223341   4.50897618
 H  -0.00000019  -2.15503793   3.18715090
 H   0.00000000  -2.00333745   0.72447787
 H  -0.00000025   1.03039616  -2.33202734
 H  -0.88642771  -0.50146582  -2.28507285
 H   0.88642794  -0.50146546  -2.28507297
Cl  -0.00000006  -0.05353940  -4.43427122
