 16
   -745.82826661
 C  -0.00000009   1.15212320   1.07255006
 C   0.00000059   1.18333885   2.45347165
 C   0.00000038  -0.01977871   3.13575200
 C  -0.00000060  -1.20083194   2.41440009
 C  -0.00000106  -1.12434333   1.03617223
 N  -0.00000076   0.02528125   0.38234449
 C   0.00000004   0.00787660  -1.67585916
 H   0.00000016   2.06481056   0.50285345
 H   0.00000133   2.12329680   2.97169057
 H   0.00000102  -0.03727250   4.21057300
 H  -0.00000080  -2.15708627   2.90188753
 H  -0.00000154  -2.01682051   0.43472342
 H  -0.00000329   1.07218329  -1.69624139
 H  -0.92364586  -0.52065255  -1.67212991
 H   0.92364922  -0.52064680  -1.67212914
Cl   0.00000119  -0.02321536  -4.02631340
