 16
   -745.88340244
 C   0.00000005   1.14800561   1.39576790
 C   0.00000002   1.18296524   2.77939040
 C  -0.00000002  -0.01859282   3.46394322
 C  -0.00000002  -1.19548130   2.73777223
 C   0.00000008  -1.11219628   1.35620230
 N   0.00000009   0.02991942   0.69372694
 C  -0.00000001  -0.00042289  -2.70317288
 H   0.00000007   2.06428351   0.83068080
 H   0.00000009   2.12368401   3.29789866
 H  -0.00000013  -0.03741525   4.53928391
 H  -0.00000019  -2.15374365   3.22311790
 H   0.00000000  -2.00855486   0.75990540
 H  -0.00000025   1.02994494  -2.39135500
 H  -0.88630589  -0.50223674  -2.35487276
 H   0.88630613  -0.50223636  -2.35487288
Cl  -0.00000006  -0.03965998  -4.49967065
