 16
   -745.87330857
 C  -0.00000002   1.17258902   1.17916006
 C   0.00000009   1.18235606   2.56273304
 C   0.00000008  -0.03165353   3.22507269
 C  -0.00000006  -1.19511580   2.47759445
 C  -0.00000010  -1.08597545   1.09829516
 N  -0.00000011   0.06778700   0.45499511
 C   0.00000002  -0.01071959  -2.13463683
 H  -0.00000019   2.10087675   0.63304940
 H   0.00000023   2.11340825   3.09818579
 H   0.00000007  -0.07014326   4.29979721
 H  -0.00000016  -2.16218796   2.94483517
 H  -0.00000014  -1.97277769   0.48665332
 H  -0.00000026   1.03763135  -1.91292439
 H  -0.89495868  -0.50335444  -1.81374890
 H   0.89495902  -0.50335393  -1.81374890
Cl   0.00000011  -0.13110419  -4.01156688
