 16
   -745.88278567
 C   0.00000007   1.15854206   1.31582753
 C   0.00000003   1.18260111   2.69956401
 C  -0.00000002  -0.02434398   3.37461150
 C  -0.00000001  -1.19549729   2.63925088
 C   0.00000010  -1.10125409   1.25847139
 N   0.00000014   0.04602113   0.60466884
 C   0.00000000  -0.00521562  -2.50272199
 H   0.00000008   2.07957243   0.75839380
 H   0.00000007   2.11919153   3.22543804
 H  -0.00000017  -0.05161631   4.44975173
 H  -0.00000020  -2.15754988   3.11696749
 H   0.00000000  -1.99325402   0.65544633
 H  -0.00000026   1.03175625  -2.21670500
 H  -0.88699286  -0.49973644  -2.14883651
 H   0.88699310  -0.49973609  -2.14883664
Cl  -0.00000011  -0.08121820  -4.30754589
