 16
   -748.48397800
 C   0.00000001   1.14371103   1.17599756
 C   0.00000000   1.19899445   2.56749556
 C  -0.00000001  -0.01369836   3.26334205
 C  -0.00000001  -1.21266049   2.54309411
 C   0.00000000  -1.12833516   1.15134809
 N   0.00000001   0.01551078   0.48600699
 C  -0.00000000   0.00493454  -2.24587031
 H   0.00000002   2.07266104   0.58969172
 H  -0.00000000   2.14260106   3.08288976
 H  -0.00000002  -0.02517972   4.34219604
 H  -0.00000002  -2.16592438   3.03782518
 H   0.00000000  -2.04346691   0.54613594
 H  -0.00000003   1.03652524  -1.91317254
 H  -0.89147368  -0.50245383  -1.89402927
 H   0.89147371  -0.50245379  -1.89402927
Cl  -0.00000001  -0.01250289  -4.06517608
