 16
   -748.45218000
 C   0.00000000   1.16609820   1.02735527
 C   0.00000000   1.19463345   2.41576043
 C   0.00000002  -0.01216395   3.10950894
 C   0.00000000  -1.20692975   2.39320256
 C  -0.00000001  -1.15260981   1.00670506
 N   0.00000000   0.01343844   0.35166734
 C   0.00000002   0.00478704  -1.49777354
 H   0.00000003   2.07233576   0.43226465
 H  -0.00000001   2.14427841   2.93512825
 H  -0.00000002  -0.02219521   4.19285321
 H  -0.00000003  -2.16583503   2.89525250
 H   0.00000001  -2.04649113   0.39267801
 H  -0.00000005   1.07039985  -1.64592048
 H  -0.92469844  -0.52733347  -1.63699768
 H   0.92469848  -0.52733347  -1.63699769
Cl  -0.00000001   0.00318325  -3.96094132
