 16
   -748.47735800
 C   0.00000001   1.15415306   1.10591050
 C   0.00000000   1.19989000   2.50652949
 C  -0.00000001  -0.01325803   3.18536191
 C  -0.00000001  -1.21244282   2.48284914
 C   0.00000000  -1.13952048   1.08255057
 N   0.00000001   0.01514264   0.43759010
 C  -0.00000000   0.00287207  -2.09773258
 H   0.00000002   2.06507211   0.51276664
 H  -0.00000000   2.14815886   3.01354411
 H  -0.00000001  -0.02385091   4.27107091
 H  -0.00000002  -2.17036651   2.97073136
 H  -0.00000000  -2.03668691   0.47059063
 H  -0.00000003   1.03224851  -1.75870694
 H  -0.89070470  -0.50478270  -1.74575000
 H   0.89070472  -0.50478266  -1.74575001
Cl  -0.00000001  -0.00358362  -3.91781032
