 16
   -748.45096100
 C   0.00000001   1.19054889   1.01004377
 C  -0.00000000   1.18919974   2.36833149
 C  -0.00000000  -0.01152412   3.08373130
 C  -0.00000001  -1.20229728   2.34592071
 C  -0.00000000  -1.17908631   0.99202812
 N   0.00000002   0.01186241   0.29516148
 C  -0.00000009   0.01382557  -1.19731668
 H   0.00000002   2.07832027   0.40797928
 H   0.00000000   2.13813855   2.89898657
 H  -0.00000001  -0.02161327   4.16814309
 H  -0.00000002  -2.16002407   2.86080989
 H  -0.00000000  -2.05488024   0.36990127
 H  -0.00000002   1.02135127  -1.58796910
 H  -0.88353930  -0.50264368  -1.59104026
 H   0.88353941  -0.50264368  -1.59104030
Cl  -0.00000001  -0.00027142  -4.05992513
