 16
   -748.47264000
 C   0.00000001   1.15763728   1.07848448
 C   0.00000000   1.20168717   2.47658973
 C  -0.00000001  -0.01327092   3.15138664
 C  -0.00000001  -1.21342017   2.45328307
 C   0.00000000  -1.14380604   1.05581872
 N   0.00000001   0.01494249   0.41954628
 C  -0.00000000   0.00225064  -2.03105798
 H   0.00000002   2.06259725   0.47656537
 H  -0.00000000   2.15222138   2.98308599
 H  -0.00000001  -0.02316048   4.23714971
 H  -0.00000002  -2.17414485   2.94138788
 H  -0.00000000  -2.03475963   0.43518943
 H  -0.00000003   1.02727694  -1.69163775
 H  -0.88714891  -0.50398233  -1.68015197
 H   0.88714894  -0.50398229  -1.68015197
Cl  -0.00000001   0.00017617  -3.85174213
