 16
   -748.47467300
 C   0.00000001   1.16181411   1.10808287
 C   0.00000000   1.19704726   2.46704575
 C  -0.00000001  -0.01235122   3.17680860
 C  -0.00000001  -1.21009244   2.44236722
 C   0.00000000  -1.14514293   1.08542730
 N   0.00000001   0.01308113   0.41803837
 C  -0.00000000   0.00239302  -2.05927925
 H   0.00000002   2.06463767   0.48729263
 H  -0.00000000   2.15454072   2.99712545
 H  -0.00000001  -0.02341598   4.24617893
 H  -0.00000002  -2.17650775   2.95503599
 H  -0.00000000  -2.03714699   0.44509405
 H  -0.00000003   1.03645028  -1.71371690
 H  -0.89497560  -0.50792759  -1.70168281
 H   0.89497563  -0.50792755  -1.70168282
Cl  -0.00000001  -0.00118914  -3.87838989
