 16
   -748.44284200
 C   0.00000000   1.16695386   1.02090575
 C  -0.00000000   1.19330237   2.41010927
 C   0.00000002  -0.01207233   3.10595877
 C  -0.00000000  -1.20567728   2.38767463
 C  -0.00000001  -1.15370341   1.00065274
 N   0.00000000   0.01327875   0.33843849
 C   0.00000002   0.00530298  -1.42452605
 H   0.00000003   2.07363553   0.42903455
 H  -0.00000001   2.14297847   2.93064312
 H  -0.00000002  -0.02212226   4.18986128
 H  -0.00000003  -2.16455316   2.89096078
 H   0.00000001  -2.04802647   0.38964059
 H  -0.00000005   1.06410738  -1.64376259
 H  -0.91931988  -0.52412561  -1.63545750
 H   0.91931992  -0.52412560  -1.63545751
Cl  -0.00000001   0.00310937  -3.98093082
