 16
   -748.44900700
 C   0.00000001   1.16662182   0.99219176
 C   0.00000000   1.18987394   2.39342779
 C  -0.00000001  -0.01201936   3.08909648
 C  -0.00000001  -1.20245857   2.37195792
 C   0.00000000  -1.15533469   0.97290585
 N   0.00000000   0.01345549   0.30459824
 C   0.00000004   0.00627281  -1.23049341
 H   0.00000002   2.08143285   0.41564837
 H  -0.00000000   2.13746242   2.91009211
 H  -0.00000001  -0.02181366   4.17693724
 H  -0.00000002  -2.15924088   2.87127201
 H  -0.00000000  -2.05682321   0.37727203
 H  -0.00000003   1.02516410  -1.61278211
 H  -0.88382173  -0.50294676  -1.60992795
 H   0.88382173  -0.50294670  -1.60992795
Cl  -0.00000001   0.00156299  -4.03852287
