 16
   -748.48292100
 C   0.00000001   1.17154629   1.16853521
 C   0.00000000   1.17842131   2.54398252
 C  -0.00000001  -0.01455141   3.23627939
 C  -0.00000001  -1.18939769   2.51717346
 C   0.00000000  -1.15400915   1.14657835
 N   0.00000001   0.01425299   0.46198866
 C   0.00000000   0.00399634  -2.21071108
 H   0.00000002   2.06416368   0.57449471
 H  -0.00000000   2.15240819   3.06967281
 H  -0.00000002  -0.02478656   4.32986471
 H  -0.00000002  -2.17675364   3.02573261
 H   0.00000000  -2.03628646   0.53034099
 H  -0.00000003   1.03508960  -1.87551915
 H  -0.89073860  -0.50283038  -1.85841333
 H   0.89073862  -0.50283034  -1.85841334
Cl  -0.00000001  -0.01017018  -4.02784100
