 16
   -748.44615900
 C   0.00000001   1.17182404   1.01024173
 C  -0.00000000   1.19012331   2.39308192
 C  -0.00000000  -0.01172450   3.09906582
 C  -0.00000001  -1.20294679   2.37061281
 C  -0.00000000  -1.15902288   0.99122180
 N   0.00000001   0.01264771   0.30558368
 C  -0.00000001   0.00779478  -1.28557677
 H   0.00000002   2.07695902   0.42130384
 H  -0.00000000   2.13992177   2.91927705
 H  -0.00000001  -0.02196738   4.18232384
 H  -0.00000002  -2.16165989   2.88011819
 H   0.00000000  -2.05220350   0.38230335
 H  -0.00000002   1.04227623  -1.62959282
 H  -0.90094438  -0.51314759  -1.62405725
 H   0.90094442  -0.51314755  -1.62405726
Cl  -0.00000001   0.00253582  -4.01810442
