 16
   -748.44387700
 C   0.00000001   1.16370160   1.03876648
 C   0.00000001   1.19714240   2.42708530
 C  -0.00000002  -0.01236422   3.11632445
 C  -0.00000001  -1.20930252   2.40437520
 C   0.00000001  -1.14994307   1.01742535
 N   0.00000000   0.01373620   0.37565358
 C   0.00000000   0.00378409  -1.64542207
 H   0.00000002   2.07005671   0.43866796
 H  -0.00000001   2.14675317   2.94380353
 H  -0.00000001  -0.02237097   4.19879409
 H  -0.00000002  -2.16832481   2.90351190
 H  -0.00000000  -2.04373017   0.39870421
 H  -0.00000002   1.07767523  -1.64806934
 H  -0.93074412  -0.53093500  -1.63812829
 H   0.93074414  -0.53093495  -1.63812829
Cl  -0.00000001   0.00331891  -3.91961856
