 16
   -748.48466100
 C   0.00000001   1.17924648   1.18368397
 C   0.00000000   1.18333715   2.57671295
 C  -0.00000001  -0.01443266   3.26803387
 C  -0.00000001  -1.19623392   2.55029962
 C   0.00000000  -1.16197796   1.16145079
 N   0.00000001   0.01528951   0.48152998
 C   0.00000001   0.00385577  -2.26734806
 H   0.00000002   2.06011551   0.60687616
 H   0.00000000   2.14704516   3.09329368
 H  -0.00000002  -0.02528021   4.35454228
 H  -0.00000002  -2.17102035   3.04830684
 H   0.00000000  -2.03242129   0.56238278
 H  -0.00000003   1.03729363  -1.93449743
 H  -0.89049305  -0.50138320  -1.91452644
 H   0.89049307  -0.50138315  -1.91452645
Cl  -0.00000001  -0.01378787  -4.08246903
