 16
   -748.46451600
 C   0.00000001   1.16015469   1.06211930
 C   0.00000000   1.20080831   2.44856104
 C  -0.00000001  -0.01264465   3.13254493
 C  -0.00000001  -1.21295968   2.42536057
 C  -0.00000000  -1.14586086   1.03983121
 N   0.00000001   0.01407062   0.40516809
 C   0.00000001   0.00231183  -1.93472740
 H   0.00000002   2.06590537   0.45374146
 H  -0.00000000   2.15140397   2.96187056
 H  -0.00000001  -0.02269325   4.21283874
 H  -0.00000002  -2.17302396   2.92088283
 H  -0.00000000  -2.03883376   0.41302361
 H  -0.00000003   1.05568495  -1.65498177
 H  -0.91145592  -0.51927977  -1.64402841
 H   0.91145593  -0.51927972  -1.64402842
Cl  -0.00000001   0.00249848  -3.82443084
