 16
   -748.44701300
 C   0.00000001   1.16491082   1.04718780
 C   0.00000000   1.19804307   2.43019615
 C  -0.00000001  -0.01234893   3.12020441
 C  -0.00000001  -1.21027790   2.40713715
 C  -0.00000000  -1.15072084   1.02565767
 N   0.00000001   0.01368591   0.38278853
 C  -0.00000001   0.00371063  -1.71945583
 H   0.00000002   2.06876043   0.44168356
 H  -0.00000000   2.14792872   2.94777373
 H  -0.00000001  -0.02243782   4.20158580
 H  -0.00000002  -2.16952657   2.90735834
 H  -0.00000000  -2.04237562   0.40148802
 H  -0.00000003   1.07831862  -1.64795765
 H  -0.93146986  -0.53133845  -1.63767093
 H   0.93146990  -0.53133841  -1.63767093
Cl  -0.00000001   0.00326895  -3.89656031
