 16
   -745.86976059
 C   0.00000007   1.16839487   1.15783435
 C   0.00000019   1.18307871   2.54130153
 C   0.00000014  -0.02858616   3.20785132
 C  -0.00000022  -1.19477807   2.46454853
 C  -0.00000020  -1.09054249   1.08501964
 N   0.00000002   0.06105138   0.43751205
 C   0.00000007  -0.01139156  -2.08148764
 H   0.00000008   2.09493471   0.60859283
 H   0.00000040   2.11601767   3.07340414
 H   0.00000017  -0.06326756   4.28268411
 H  -0.00000052  -2.16015935   2.93521608
 H  -0.00000048  -1.97955612   0.47649050
 H  -0.00000124   1.03498940  -1.85781000
 H  -0.89786003  -0.51172188  -1.78506773
 H   0.89786134  -0.51171980  -1.78506777
Cl   0.00000012  -0.09848116  -3.98727646
