 16
   -748.45187600
 C   0.00000001   1.19667508   1.00061809
 C   0.00000000   1.19402470   2.37101788
 C  -0.00000001  -0.01208060   3.06920104
 C  -0.00000001  -1.20724142   2.35000166
 C  -0.00000000  -1.18840792   0.98151562
 N   0.00000002   0.01204417   0.29530433
 C  -0.00000015   0.01700088  -1.19311635
 H   0.00000002   2.07189665   0.39929606
 H   0.00000000   2.14399943   2.88988944
 H  -0.00000001  -0.02141250   4.16008157
 H  -0.00000001  -2.16571015   2.85212314
 H  -0.00000000  -2.04868032   0.36227615
 H  -0.00000002   1.02455562  -1.55524597
 H  -0.88574729  -0.50221352  -1.56422121
 H   0.88574745  -0.50221354  -1.56422126
Cl  -0.00000001  -0.00397395  -4.08077469
