 16
   -748.48306600
 C   0.00000001   1.14600162   1.16185622
 C   0.00000000   1.20039981   2.55620719
 C  -0.00000001  -0.01349426   3.25032819
 C  -0.00000001  -1.21413918   2.53204653
 C   0.00000000  -1.13075377   1.13733749
 N   0.00000001   0.01559085   0.47588033
 C  -0.00000000   0.00439001  -2.21817376
 H   0.00000002   2.07115302   0.57591855
 H  -0.00000000   2.14276833   3.06939496
 H  -0.00000002  -0.02494692   4.32813678
 H  -0.00000002  -2.16569673   3.02461748
 H   0.00000000  -2.04202836   0.53260691
 H  -0.00000003   1.03526527  -1.88372517
 H  -0.89098089  -0.50278618  -1.86614184
 H   0.89098091  -0.50278614  -1.86614185
Cl  -0.00000001  -0.01067478  -4.03640250
