 16
   -745.84663964
 C   0.00000044   1.16348966   0.99893673
 C   0.00000071   1.18566966   2.37481442
 C   0.00000011  -0.01608214   3.05825118
 C  -0.00000055  -1.20519204   2.34459953
 C  -0.00000059  -1.14967248   0.97423541
 N  -0.00000014   0.01664577   0.32819529
 C   0.00000003   0.01078034  -1.17404123
 H   0.00000063   2.05887126   0.40957383
 H   0.00000141   2.12700833   2.88822991
 H  -0.00000008  -0.02924518   4.13255844
 H  -0.00000126  -2.15790611   2.83661742
 H  -0.00000099  -2.02785325   0.35785095
 H  -0.00000355   1.02413264  -1.53026480
 H  -0.88311552  -0.49426238  -1.52504393
 H   0.88311915  -0.49425630  -1.52504378
Cl   0.00000016  -0.00386518  -4.17572388
