 16
   -748.48179100
 C   0.00000001   1.16838191   1.16147257
 C   0.00000000   1.18176990   2.52413129
 C  -0.00000001  -0.01425635   3.22810724
 C  -0.00000001  -1.19275945   2.49758402
 C   0.00000000  -1.15097919   1.13945815
 N   0.00000001   0.01401824   0.45088289
 C  -0.00000000   0.00372694  -2.17984127
 H   0.00000002   2.06564841   0.55732469
 H  -0.00000000   2.15335864   3.05648349
 H  -0.00000002  -0.02452329   4.31317718
 H  -0.00000002  -2.17737795   3.01291067
 H   0.00000000  -2.03778457   0.51345226
 H  -0.00000003   1.03482398  -1.84418694
 H  -0.89124877  -0.50369980  -1.82840447
 H   0.89124879  -0.50369976  -1.82840448
Cl  -0.00000001  -0.00838508  -4.00040179
