 16
   -748.45198100
 C   0.00000001   1.16125449   1.04907633
 C   0.00000000   1.19925065   2.43766884
 C  -0.00000001  -0.01254284   3.12297042
 C  -0.00000001  -1.21136042   2.41478160
 C  -0.00000000  -1.14730521   1.02715785
 N   0.00000001   0.01401167   0.39343336
 C   0.00000002   0.00287663  -1.79245772
 H   0.00000002   2.06817279   0.44504515
 H  -0.00000000   2.14890605   2.95175414
 H  -0.00000001  -0.02250736   4.20453331
 H  -0.00000002  -2.17049225   2.91114498
 H  -0.00000000  -2.04146843   0.40477001
 H  -0.00000003   1.07434502  -1.64830720
 H  -0.92763173  -0.52901439  -1.63777914
 H   0.92763174  -0.52901433  -1.63777915
Cl  -0.00000001   0.00315053  -3.87226730
