 16
   -748.48386600
 C   0.00000001   1.17474309   1.17479183
 C   0.00000000   1.17905534   2.56273422
 C  -0.00000001  -0.01453987   3.24915942
 C  -0.00000001  -1.19079182   2.53607460
 C   0.00000000  -1.15726507   1.15259209
 N   0.00000001   0.01464732   0.47282486
 C   0.00000000   0.00412469  -2.23835960
 H   0.00000002   2.06236666   0.59111657
 H  -0.00000000   2.15019019   3.08192375
 H  -0.00000002  -0.02504967   4.34390781
 H  -0.00000002  -2.17448060   3.03748187
 H   0.00000000  -2.03447960   0.54680535
 H  -0.00000003   1.03717105  -1.90528378
 H  -0.89162333  -0.50271057  -1.88674356
 H   0.89162335  -0.50271052  -1.88674357
Cl  -0.00000001  -0.01200802  -4.05853634
