 16
   -745.84244408
 C   0.00000028   1.16478421   1.01750835
 C   0.00000071   1.18577442   2.39280630
 C   0.00000006  -0.01616881   3.07600535
 C  -0.00000066  -1.20546630   2.36213204
 C  -0.00000079  -1.15076788   0.99254029
 N  -0.00000039   0.01696733   0.34556981
 C   0.00000000   0.01146516  -1.13068725
 H   0.00000058   2.06046570   0.42877396
 H   0.00000154   2.12713103   2.90606240
 H   0.00000018  -0.02951546   4.15027174
 H  -0.00000102  -2.15828619   2.85382088
 H  -0.00000105  -2.02900666   0.37636122
 H  -0.00000346   1.02171828  -1.50154175
 H  -0.88075585  -0.49188327  -1.49703475
 H   0.88075948  -0.49187720  -1.49703443
Cl   0.00000037  -0.00707175  -4.50180867
