 16
   -745.88313342
 C   0.00000007   1.15512732   1.34199316
 C   0.00000002   1.18273685   2.72570548
 C  -0.00000003  -0.02245641   3.40386151
 C  -0.00000001  -1.19548938   2.67149554
 C   0.00000011  -1.10483458   1.29044403
 N   0.00000014   0.04077329   0.63383660
 C   0.00000000  -0.00372383  -2.56892997
 H   0.00000010   2.07459323   0.78203881
 H   0.00000006   2.12068178   3.24917890
 H  -0.00000019  -0.04697056   4.47907507
 H  -0.00000020  -2.15630971   3.15171114
 H   0.00000002  -1.99824052   0.68960149
 H  -0.00000025   1.03100746  -2.27371970
 H  -0.88664075  -0.50059642  -2.21624175
 H   0.88664098  -0.50059607  -2.21624189
Cl  -0.00000011  -0.06743986  -4.37006291
