 16
   -748.47885400
 C   0.00000001   1.16393080   1.13843961
 C   0.00000000   1.19005217   2.49248541
 C  -0.00000001  -0.01339006   3.20665978
 C  -0.00000001  -1.20187715   2.46685478
 C   0.00000000  -1.14702673   1.11609073
 N   0.00000001   0.01369112   0.43244927
 C  -0.00000000   0.00306541  -2.11803195
 H   0.00000002   2.06611831   0.52293850
 H  -0.00000000   2.15378230   3.02789960
 H  -0.00000001  -0.02399144   4.27955726
 H  -0.00000002  -2.17680936   2.98503520
 H   0.00000000  -2.03833492   0.47984858
 H  -0.00000003   1.03277167  -1.78105510
 H  -0.89070305  -0.50444315  -1.76749440
 H   0.89070307  -0.50444311  -1.76749441
Cl  -0.00000001  -0.00483326  -3.94043736
