 16
   -745.88013683
 C   0.00000003   1.16820903   1.24260587
 C   0.00000003   1.18227599   2.62632364
 C   0.00000002  -0.02957558   3.29259792
 C  -0.00000001  -1.19536441   2.54879741
 C   0.00000001  -1.09087748   1.16888494
 N   0.00000006   0.06096131   0.52272882
 C   0.00000001  -0.00925626  -2.31067729
 H  -0.00000002   2.09395340   0.69271337
 H   0.00000011   2.11502151   3.15892443
 H  -0.00000007  -0.06463324   4.36748405
 H  -0.00000017  -2.16089275   3.01935388
 H  -0.00000006  -1.97905221   0.55980200
 H  -0.00000025   1.03422503  -2.05616119
 H  -0.88929111  -0.49868896  -1.96126041
 H   0.88929136  -0.49868861  -1.96126049
Cl  -0.00000003  -0.11935417  -4.13711145
