 16
   -745.87618872
 C   0.00000000   1.17385537   1.20042891
 C   0.00000009   1.18238157   2.58408778
 C   0.00000005  -0.03220557   3.24534778
 C  -0.00000007  -1.19501017   2.49684617
 C  -0.00000006  -1.08474142   1.11754406
 N  -0.00000008   0.06964820   0.47557148
 C   0.00000002  -0.01183680  -2.19081796
 H  -0.00000015   2.10215658   0.65460511
 H   0.00000023   2.11293449   3.12044561
 H   0.00000003  -0.07166065   4.32005649
 H  -0.00000018  -2.16244877   2.96338269
 H  -0.00000008  -1.97081615   0.50503912
 H  -0.00000027   1.03586806  -1.96127591
 H  -0.89267294  -0.50124820  -1.85564127
 H   0.89267325  -0.50124770  -1.85564128
Cl   0.00000008  -0.13736625  -4.04623326
