 16
   -745.88313384
 C   0.00000007   1.13809871   1.51014528
 C   0.00000001   1.18324305   2.89357569
 C  -0.00000007  -0.01317732   3.58709354
 C   0.00000005  -1.19527217   2.86946969
 C   0.00000014  -1.12205724   1.48721404
 N   0.00000006   0.01495952   0.81630977
 C  -0.00000003   0.00389837  -2.97542627
 H   0.00000014   2.05047187   0.93872009
 H   0.00000001   2.12779955   3.40514003
 H  -0.00000025  -0.02407327   4.66256699
 H  -0.00000013  -2.15001200   3.36177023
 H   0.00000012  -2.02263347   0.89734837
 H  -0.00000011   1.02726767  -2.63986936
 H  -0.88613512  -0.50576103  -2.63636290
 H   0.88613516  -0.50576096  -2.63636306
Cl  -0.00000009   0.00127134  -4.76758661
