 16
   -748.44284200
 C  -0.00000000   1.16524255   1.03380478
 C   0.00000000   1.19596454   2.42141160
 C   0.00000002  -0.01225558   3.11305911
 C   0.00000000  -1.20818222   2.39873049
 C  -0.00000001  -1.15151620   1.01275738
 N  -0.00000000   0.01359814   0.36489620
 C   0.00000002   0.00427110  -1.57102103
 H   0.00000003   2.07103599   0.43549474
 H  -0.00000001   2.14557835   2.93961338
 H  -0.00000002  -0.02226815   4.19584514
 H  -0.00000003  -2.16711690   2.89954421
 H   0.00000001  -2.04495580   0.39571544
 H  -0.00000005   1.07669232  -1.64807837
 H  -0.93007700  -0.53054133  -1.63853786
 H   0.93007704  -0.53054133  -1.63853787
Cl  -0.00000001   0.00325713  -3.94095182
