 16
   -745.83519835
 C   0.00000025   1.15946868   1.00117822
 C   0.00000070   1.18581220   2.37885775
 C   0.00000041  -0.01654998   3.06215465
 C  -0.00000054  -1.20470783   2.34880503
 C  -0.00000075  -1.14450659   0.97530664
 N  -0.00000034   0.01666279   0.33229415
 C   0.00000001   0.00965828  -1.33021052
 H   0.00000015   2.05752499   0.41403322
 H   0.00000120   2.12654777   2.89400900
 H   0.00000064  -0.02975667   4.13662095
 H  -0.00000136  -2.15727698   2.84174008
 H  -0.00000125  -2.02572659   0.36184885
 H  -0.00000332   1.04715806  -1.58492261
 H  -0.90243433  -0.50731669  -1.57701557
 H   0.90243785  -0.50731091  -1.57701501
Cl   0.00000062  -0.00141795  -3.90393934
