 16
   -745.84526090
 C   0.00000048   1.16418065   1.00731896
 C   0.00000070   1.18569428   2.38287960
 C   0.00000003  -0.01610882   3.06622301
 C  -0.00000060  -1.20531651   2.35244001
 C  -0.00000057  -1.15031047   0.98252716
 N  -0.00000012   0.01679791   0.33585517
 C   0.00000006   0.01114383  -1.14948678
 H   0.00000082   2.05964165   0.41820771
 H   0.00000122   2.12706604   2.89615913
 H  -0.00000006  -0.02935826   4.14050639
 H  -0.00000121  -2.15809095   2.84426684
 H  -0.00000097  -2.02844734   0.36617538
 H  -0.00000349   1.02216704  -1.51585919
 H  -0.88129974  -0.49267847  -1.51106442
 H   0.88130337  -0.49267245  -1.51106435
Cl   0.00000002  -0.00544553  -4.33133913
