 16
   -748.47914100
 C   0.00000001   1.15276811   1.11973660
 C   0.00000000   1.19935787   2.51958738
 C  -0.00000001  -0.01329552   3.20164655
 C  -0.00000001  -1.21220159   2.49572267
 C   0.00000000  -1.13784906   1.09609444
 N   0.00000001   0.01525239   0.44645322
 C  -0.00000000   0.00322521  -2.12806319
 H   0.00000002   2.06658614   0.52965498
 H  -0.00000000   2.14669914   3.02792863
 H  -0.00000002  -0.02414982   4.28622562
 H  -0.00000002  -2.16909358   2.98458131
 H   0.00000000  -2.03799683   0.48714587
 H  -0.00000003   1.03313773  -1.79049001
 H  -0.89093454  -0.50440664  -1.77662676
 H   0.89093456  -0.50440660  -1.77662677
Cl  -0.00000001  -0.00536435  -3.94922503
