 16
   -745.84651024
 C   0.00000039   1.16309258   0.99578229
 C   0.00000067   1.18568583   2.37184696
 C   0.00000009  -0.01608806   3.05530275
 C  -0.00000062  -1.20514144   2.34173625
 C  -0.00000069  -1.14924939   0.97107586
 N  -0.00000018   0.01658134   0.32549993
 C   0.00000003   0.01057812  -1.18958031
 H   0.00000067   2.05852629   0.40637893
 H   0.00000134   2.12698179   2.88539189
 H   0.00000009  -0.02921523   4.12962561
 H  -0.00000111  -2.15781841   2.83387671
 H  -0.00000110  -2.02754653   0.35476776
 H  -0.00000351   1.02594633  -1.53761882
 H  -0.88471664  -0.49548487  -1.53211260
 H   0.88472028  -0.49547881  -1.53211239
Cl   0.00000024  -0.00310696  -4.10611534
