 16
   -745.86073572
 C   0.00000010   1.17136040   1.13290116
 C   0.00000022   1.18321340   2.51618538
 C   0.00000008  -0.02981806   3.18020838
 C  -0.00000021  -1.19486677   2.43494092
 C  -0.00000022  -1.08822526   1.05596489
 N  -0.00000005   0.06500067   0.41083966
 C   0.00000005  -0.01080013  -1.98245952
 H   0.00000013   2.09912498   0.58553844
 H   0.00000049   2.11508231   3.05001197
 H   0.00000010  -0.06649569   4.25491884
 H  -0.00000048  -2.16106172   2.90376004
 H  -0.00000046  -1.97606933   0.44552226
 H  -0.00000134   1.04227601  -1.80437497
 H  -0.90493382  -0.51589671  -1.72575349
 H   0.90493516  -0.51589447  -1.72575349
Cl   0.00000015  -0.10866701  -3.95870495
