 16
   -745.82578334
 C  -0.00000003   1.15265014   1.04827423
 C   0.00000056   1.18434461   2.42810133
 C   0.00000037  -0.01799375   3.11201509
 C  -0.00000054  -1.20256512   2.39533717
 C  -0.00000108  -1.13314585   1.01829381
 N  -0.00000076   0.01937269   0.36807777
 C   0.00000001   0.00916069  -1.56136734
 H   0.00000022   2.05994201   0.47166179
 H   0.00000127   2.12507110   2.94436134
 H   0.00000098  -0.03259041   4.18672921
 H  -0.00000072  -2.15679211   2.88619309
 H  -0.00000161  -2.02295484   0.41428757
 H  -0.00000326   1.06979600  -1.65849255
 H  -0.92105350  -0.51872960  -1.64439634
 H   0.92105686  -0.51872392  -1.64439541
Cl   0.00000113  -0.00857902  -3.99093527
