 16
   -745.84398136
 C   0.00000051   1.16449122   1.01224427
 C   0.00000068   1.18572921   2.38766799
 C   0.00000000  -0.01613566   3.07094376
 C  -0.00000059  -1.20538903   2.35711164
 C  -0.00000060  -1.15055654   0.98737215
 N  -0.00000011   0.01688131   0.34051615
 C   0.00000007   0.01130844  -1.13954828
 H   0.00000094   2.06005067   0.42331151
 H   0.00000115   2.12709789   2.90092517
 H  -0.00000012  -0.02943286   4.14521796
 H  -0.00000119  -2.15818765   2.84886430
 H  -0.00000090  -2.02873204   0.37109510
 H  -0.00000344   1.02180109  -1.50869696
 H  -0.88090946  -0.49220773  -1.50405832
 H   0.88091307  -0.49220173  -1.50405828
Cl  -0.00000008  -0.00625397  -4.41516266
